LTspice 24.1.1 for Windows
Circuit: C:\Users\zayin\OneDrive - Syddansk Universitet\Desktop\Expert in Teams - AI Deputy\Simulations\Olfactory\Draft1.net
Start Time: Wed Oct 29 17:31:09 2025
D:\LT Spice Models\LM25576_Trans_LTSPICE.lib(49): There is more than one sub-circuit definition with this name, which is ill-formed.
.SUBCKT LM25576_TRANS VIN FB SW BST RT RAMP SYNC AGND IS SD VCC OUT SS COMP PRE PGND
        ^^^^^^^^^^^^^
