LTspice 24.1.1 for Windows
Circuit: C:\Users\zayin\OneDrive - Syddansk Universitet\Desktop\Expert in Teams - AI Deputy\Simulations\Olfactory\Draft1.net
Start Time: Sun Oct 26 18:24:12 2025
solver = Normal
Maximum thread count: 12
tnom = 27
temp = 27
method = modified trap
C:\Users\zayin\OneDrive - Syddansk Universitet\Desktop\Expert in Teams - AI Deputy\Simulations\Olfactory\Draft1.net(3): Limiting rise time to 0.01.

V1 N001 0 PULSE(0 3.3 0 0 0 100m 200m)
^^^^^^^^^^^^^^^^^^^^^^^^^^^^^^^^^^^^^^
C:\Users\zayin\OneDrive - Syddansk Universitet\Desktop\Expert in Teams - AI Deputy\Simulations\Olfactory\Draft1.net(3): Limiting fall time to 0.01.

V1 N001 0 PULSE(0 3.3 0 0 0 100m 200m)
^^^^^^^^^^^^^^^^^^^^^^^^^^^^^^^^^^^^^^
.OP point found by inspection.
Total elapsed time: 0.032 seconds.

Files loaded:
C:\Users\zayin\OneDrive - Syddansk Universitet\Desktop\Expert in Teams - AI Deputy\Simulations\Olfactory\Draft1.net

