LTspice 24.1.1 for Windows
Circuit: C:\Users\zayin\OneDrive - Syddansk Universitet\Desktop\Expert in Teams - AI Deputy\Simulations\Olfactory\V1_based_on_demo_model.net
Start Time: Sat Oct  4 22:22:49 2025
solver = Normal
Maximum thread count: 12
tnom = 27
temp = 27
method = modified trap
Direct Newton iteration for .op point succeeded.
Total elapsed time: 0.531 seconds.

Files loaded:
C:\Users\zayin\OneDrive - Syddansk Universitet\Desktop\Expert in Teams - AI Deputy\Simulations\Olfactory\V1_based_on_demo_model.net
C:\Users\zayin\AppData\Local\LTspice\lib\cmp\standard.mos

