LTspice 24.1.1 for Windows
Circuit: C:\Users\zayin\OneDrive - Syddansk Universitet\Desktop\Expert in Teams - AI Deputy\DC-DC Converter Design\Draft1.net
Start Time: Wed Oct 29 23:01:48 2025
solver = Normal
Maximum thread count: 12
tnom = 27
temp = 27
method = modified trap
C:\Users\zayin\OneDrive - Syddansk Universitet\Desktop\Expert in Teams - AI Deputy\DC-DC Converter Design\Draft1.net(4): Limiting rise time to 5e-09.

V1 N003 0 PULSE(0 3.3 0 0 0 50n 200n)
^^^^^^^^^^^^^^^^^^^^^^^^^^^^^^^^^^^^^
C:\Users\zayin\OneDrive - Syddansk Universitet\Desktop\Expert in Teams - AI Deputy\DC-DC Converter Design\Draft1.net(4): Limiting fall time to 5e-09.

V1 N003 0 PULSE(0 3.3 0 0 0 50n 200n)
^^^^^^^^^^^^^^^^^^^^^^^^^^^^^^^^^^^^^
Direct Newton iteration for .op point succeeded.
Total elapsed time: 0.076 seconds.

Files loaded:
C:\Users\zayin\OneDrive - Syddansk Universitet\Desktop\Expert in Teams - AI Deputy\DC-DC Converter Design\Draft1.net
C:\Users\zayin\AppData\Local\LTspice\lib\cmp\standard.mos

