LTspice 24.1.1 for Windows
Circuit: C:\Users\zayin\OneDrive - Syddansk Universitet\Desktop\Expert in Teams - AI Deputy\DC-DC Converter Design\Draft1.net
Start Time: Mon Nov 17 20:56:23 2025
solver = Normal
Maximum thread count: 12
tnom = 27
temp = 27
method = modified trap
C:\Users\zayin\OneDrive - Syddansk Universitet\Desktop\Expert in Teams - AI Deputy\DC-DC Converter Design\Draft1.net(4): Limiting rise time to 4.54e-07.

V2 N004 0 PULSE(0 3.3V 0 0 0 4.54u 9.1u)
^^^^^^^^^^^^^^^^^^^^^^^^^^^^^^^^^^^^^^^^
C:\Users\zayin\OneDrive - Syddansk Universitet\Desktop\Expert in Teams - AI Deputy\DC-DC Converter Design\Draft1.net(4): Limiting fall time to 4.54e-07.

V2 N004 0 PULSE(0 3.3V 0 0 0 4.54u 9.1u)
^^^^^^^^^^^^^^^^^^^^^^^^^^^^^^^^^^^^^^^^
C:\Users\zayin\OneDrive - Syddansk Universitet\Desktop\Expert in Teams - AI Deputy\DC-DC Converter Design\Draft1.net(8): Limiting rise time to 4.54e-07.

V4 N007 0 PULSE(0 3.3V 0 0 0 4.54u 9.1u)
^^^^^^^^^^^^^^^^^^^^^^^^^^^^^^^^^^^^^^^^
C:\Users\zayin\OneDrive - Syddansk Universitet\Desktop\Expert in Teams - AI Deputy\DC-DC Converter Design\Draft1.net(8): Limiting fall time to 4.54e-07.

V4 N007 0 PULSE(0 3.3V 0 0 0 4.54u 9.1u)
^^^^^^^^^^^^^^^^^^^^^^^^^^^^^^^^^^^^^^^^
Direct Newton iteration for .op point succeeded.
Total elapsed time: 0.107 seconds.

Files loaded:
C:\Users\zayin\OneDrive - Syddansk Universitet\Desktop\Expert in Teams - AI Deputy\DC-DC Converter Design\Draft1.net
C:\Users\zayin\AppData\Local\LTspice\lib\cmp\standard.mos

