LTspice 24.1.1 for Windows
Circuit: C:\Users\zayin\OneDrive - Syddansk Universitet\Desktop\Expert in Teams - AI Deputy\DC-DC Converter Design\LM25576_LTSPICE_Simulation.net
Start Time: Wed Oct 29 17:46:09 2025
solver = Normal
Maximum thread count: 12
tnom = 27
temp = 27
method = modified trap
Instance "u1:x_u1_u53:M1": Width narrower than recommended for a level 3 MOSFET.
Direct Newton iteration failed to find .op point.  (Use ".option noopiter" to skip.)
Starting Gmin stepping
Increasing initial diagonal Gmin to 100
Increasing initial diagonal Gmin to 1000
Increasing initial diagonal Gmin to 10000
Increasing initial diagonal Gmin to 100000
Increasing initial diagonal Gmin to 1e+06
Initial Gmin=1e+06 failed
Gmin stepping failed

Starting source stepping with srcstepmethod=0
Source Step = 3.0303%
vernier = 0.25
Source Step = 0.0177557%
Starting source stepping with srcstepmethod=1
Source Step = 3.0303%
vernier = 0.25
Source stepping failed

Pseudo Transient failed in finding the operating point at 35.1571 ms.
Trouble finding operating point....skipping operating point for Transient analysis.

Simulation Failed: Canceled per user request

Total elapsed time: 3.366 seconds.

Files loaded:
C:\Users\zayin\OneDrive - Syddansk Universitet\Desktop\Expert in Teams - AI Deputy\DC-DC Converter Design\LM25576_LTSPICE_Simulation.net
C:\Users\zayin\AppData\Local\LTspice\lib\cmp\standard.dio
C:\Users\zayin\OneDrive - Syddansk Universitet\Desktop\Expert in Teams - AI Deputy\DC-DC Converter Design\Ltspice Model\LM25576_Trans_LTSPICE.lib

